Circuit: * C:\Users\matti\Desktop\MAE\mxrPhase90\Face90\SPICE\SPICE files\Draft1.asc

.OP point found by inspection.

Date: Fri May 26 23:23:13 2023
Total elapsed time: 0.064 seconds.

tnom = 27
temp = 27
method = trap
totiter = 0
traniter = 0
tranpoints = 0
accept = 0
rejected = 0
matrix size = 3
fillins = 0
solver = Normal
Avg thread counts: 4.0/0.0/0.0/2.0
Matrix Compiler1:       4 opcodes
Matrix Compiler2:      15 opcodes
