Circuit: * C:\Users\matti\Desktop\MAE\mxrPhase90\Face90\SPICE\SPICE files\Draft1.asc

.OP point found by inspection.
Ignoring empty pin current: Ix(u1:1)
Ignoring empty pin current: Ix(u1:2)
Ignoring empty pin current: Ix(u2:1)
Ignoring empty pin current: Ix(u2:2)
Ignoring empty pin current: Ix(u1:1)
Ignoring empty pin current: Ix(u1:2)
Ignoring empty pin current: Ix(u2:1)
Ignoring empty pin current: Ix(u2:2)
Heightened Def Con from 6.01431e-07 to 6.04431e-07
Heightened Def Con from 7.08291e-07 to 7.09291e-07
Heightened Def Con from 7.09295e-07 to 7.12295e-07
Heightened Def Con from 7.14295e-07 to 7.14295e-07
Heightened Def Con from 7.14295e-07 to 7.1542e-07
Heightened Def Con from 7.1542e-07 to 7.1842e-07
Heightened Def Con from 7.18684e-07 to 7.18715e-07
Heightened Def Con from 7.18715e-07 to 7.18965e-07
Heightened Def Con from 7.1935e-07 to 7.1935e-07
Heightened Def Con from 7.1935e-07 to 7.19477e-07
Heightened Def Con from 7.19489e-07 to 7.19505e-07
Heightened Def Con from 7.19505e-07 to 7.19505e-07
Heightened Def Con from 7.19505e-07 to 7.2063e-07
Heightened Def Con from 7.20944e-07 to 7.21194e-07
Heightened Def Con from 7.21207e-07 to 7.21208e-07
Heightened Def Con from 7.21208e-07 to 7.24208e-07
Heightened Def Con from 7.24459e-07 to 7.24474e-07
Heightened Def Con from 7.24474e-07 to 7.2449e-07
Heightened Def Con from 7.2449e-07 to 7.24522e-07
Heightened Def Con from 7.24553e-07 to 7.24803e-07
Heightened Def Con from 7.25023e-07 to 7.28023e-07
Heightened Def Con from 7.28349e-07 to 7.28349e-07
Heightened Def Con from 7.28349e-07 to 7.31349e-07
Heightened Def Con from 7.38042e-07 to 7.38168e-07
Heightened Def Con from 7.38168e-07 to 7.38294e-07
Heightened Def Con from 7.38295e-07 to 7.38298e-07
Heightened Def Con from 7.3831e-07 to 7.3856e-07
Heightened Def Con from 7.3856e-07 to 7.4156e-07
Heightened Def Con from 7.41818e-07 to 7.42068e-07
Heightened Def Con from 7.42096e-07 to 7.42346e-07
Heightened Def Con from 7.4262e-07 to 7.4287e-07
Heightened Def Con from 7.43476e-07 to 7.43476e-07
Heightened Def Con from 7.43476e-07 to 7.43726e-07
Heightened Def Con from 7.43733e-07 to 7.43733e-07
Heightened Def Con from 7.43735e-07 to 7.43766e-07
Heightened Def Con from 7.43797e-07 to 7.44047e-07
Heightened Def Con from 7.44336e-07 to 7.44351e-07
Heightened Def Con from 7.44351e-07 to 7.44601e-07
Heightened Def Con from 7.44605e-07 to 7.45607e-07
Heightened Def Con from 7.45607e-07 to 7.45857e-07
Heightened Def Con from 7.47131e-07 to 7.47147e-07
Heightened Def Con from 7.47147e-07 to 7.47288e-07
Heightened Def Con from 7.47288e-07 ++++++++++++++++++++to 7.4729e-07
Heightened Def Con from 7.47294e-07 to 7.50294e-07
Heightened Def Con from 7.56294e-07 to 7.57419e-07
Heightened Def Con from 7.57419e-07 to 7.58435e-07
Heightened Def Con from 7.58498e-07 to 7.58516e-07
Heightened Def Con from 7.5852e-07 to 7.58551e-07
Heightened Def Con from 7.58582e-07 to 7.58598e-07
Heightened Def Con from 7.58602e-07 to 7.58727e-07
Heightened Def Con from 7.58727e-07 to 7.58727e-07
Heightened Def Con from 7.58727e-07 to 7.60852e-07
Heightened Def Con from 7.61157e-07 to 7.62159e-07
Heightened Def Con from 7.62187e-07 to 7.62203e-07
Heightened Def Con from 7.62203e-07 to 7.62453e-07
Heightened Def Con from 7.6262e-07 to 7.6287e-07
Heightened Def Con from 7.62887e-07 to 7.6289e-07
Heightened Def Con from 7.62891e-07 to 7.62906e-07
Heightened Def Con from 7.62907e-07 to 7.62938e-07
Heightened Def Con from 7.62971e-07 to 7.63221e-07
Heightened Def Con from 7.63221e-07 to 7.64237e-07
Heightened Def Con from 7.64268e-07 to 7.64393e-07
Heightened Def Con from 7.64393e-07 to 7.64394e-07
Heightened Def Con from 7.64394e-07 to 7.64521e-07
Heightened Def Con from 7.64522e-07 to 7.64538e-07
Heightened Def Con from 7.64538e-07 to 7.64538e-07
Heightened Def Con from 7.64538e-07 to 7.66663e-07
Heightened Def Con from 7.66665e-07 to 7.66792e-07
Heightened Def Con from 7.66806e-07 to 7.67931e-07
Heightened Def Con from 7.68472e-07 to 7.68489e-07
Heightened Def Con from 7.6849e-07 to 7.7149e-07
Heightened Def Con from 7.71763e-07 to 7.72779e-07
Heightened Def Con from 7.72872e-07 to 7.73122e-07
Heightened Def Con from 7.74002e-07 to 7.76127e-07
Heightened Def Con from 7.76128e-07 to 7.76143e-07
Heightened Def Con from 7.76143e-07 to 7.77143e-07
Heightened Def Con from 7.77143e-07 to 7.77268e-07
Heightened Def Con from 7.77268e-07 to 7.77409e-07
Heightened Def Con from 7.77409e-07 to 7.77659e-07
Heightened Def Con from 7.77663e-07 to 7.78665e-07
Heightened Def Con from 7.78666e-07 to 7.79682e-07
Heightened Def Con from 7.79683e-07 to 7.79933e-07
Heightened Def Con from 7.79933e-07 to 7.79935e-07
Heightened Def Con from 7.79936e-07 to 7.82936e-07
Heightened Def Con from 7.85036e-07 to 7.85161e-07
Heightened Def Con from 7.85161e-07 to 7.85411e-07
Heightened Def Con from 7.85411e-07 to 7.85413e-07
Heightened Def Con from 7.85413e-07 to 7.85413e-07
Heightened Def Con from 7.85413e-07 to 7.85415e-07
Heightened Def Con from 7.85415e-07 to 7.87415e-07
Heightened Def Con from 7.87415e-07 to 7.88416e-07
Heightened Def Con from 7.88416e-07 to 7.89416e-07
Heightened Def Con from 7.89416e-07 to 7.89557e-07
Heightened Def Con from 7.89557e-07 to 7.89557e-07
Heightened Def Con from 7.89557e-07 to 7.89557e-07
Heightened Def Con from 7.89557e-07 ++++++++++++++++++++++++to 7.89557e-07
Heightened Def Con from 7.89557e-07 to 7.89557e-07
Heightened Def Con from 7.89557e-07 to 7.89557e-07
Heightened Def Con from 7.89557e-07 to 7.89557e-07
Heightened Def Con from 7.89557e-07 to 7.89557e-07
Heightened Def Con from 7.89557e-07 to 7.89698e-07
Heightened Def Con from 7.89698e-07 to 7.8976e-07
Heightened Def Con from 7.8976e-07 to 7.90762e-07
Heightened Def Con from 7.90762e-07 to 7.90903e-07
Heightened Def Con from 7.90942e-07 to 7.91004e-07
Heightened Def Con from 7.91005e-07 to 7.91038e-07
Heightened Def Con from 7.9105e-07 to 7.9105e-07
Heightened Def Con from 7.9105e-07 +++++++++++++++++++++++++++to 7.9105e-07
Heightened Def Con from 7.9105e-07 ++++++++++++++++++++++++to 7.91065e-07
Heightened Def Con from 7.91067e-07 to 7.91067e-07
Heightened Def Con from 7.91067e-07 to 7.91067e-07
Heightened Def Con from 7.91067e-07 to 7.91067e-07
Heightened Def Con from 7.91067e-07 to 7.91067e-07
Heightened Def Con from 7.91067e-07 ++++++++++++++++++++++++to 7.91082e-07
Heightened Def Con from 7.91082e-07 to 7.92082e-07
Heightened Def Con from 7.92082e-07 to 7.92145e-07
Heightened Def Con from 7.92161e-07 to 7.93176e-07
Heightened Def Con from 7.93216e-07 ++++++++++++++++++++++++to 7.93262e-07
Heightened Def Con from 7.93262e-07 ++++++++++++++++++++++++++to 7.93262e-07
Heightened Def Con from 7.93262e-07 to 7.93262e-07
Heightened Def Con from 7.93262e-07 ++++++++++++++++++++++++to 7.93262e-07
Heightened Def Con from 7.93262e-07 ++++++++++++++++++++++++to 7.93262e-07
Heightened Def Con from 7.93262e-07 ++++++++++++++++++++++++to 7.93262e-07
Heightened Def Con from 7.93262e-07 to 7.93262e-07
Heightened Def Con from 7.93262e-07 ++++++++++++++++++++++++to 7.93262e-07
Heightened Def Con from 7.93262e-07 ++++++++++++++++++++++++to 7.93262e-07
Heightened Def Con from 7.93262e-07 ++++++++++++++++++++++++to 7.93262e-07
Heightened Def Con from 7.93262e-07 to 7.93262e-07
Heightened Def Con from 7.93262e-07 ++++++++++++++++++++++++++to 7.93387e-07
Heightened Def Con from 7.93387e-07 to 7.94403e-07
Heightened Def Con from 7.94403e-07 to 7.95528e-07
Heightened Def Con from 7.95532e-07 to 7.97534e-07
Heightened Def Con from 7.97538e-07 to 7.97585e-07
Heightened Def Con from 7.97585e-07 to 7.97585e-07
Heightened Def Con from 7.97585e-07 to 7.97589e-07
Heightened Def Con from 7.97593e-07 to 7.97597e-07
Heightened Def Con from 7.97597e-07 to 7.97629e-07
Heightened Def Con from 7.97848e-07 to 7.97848e-07
Heightened Def Con from 7.97848e-07 to 7.97881e-07
Heightened Def Con from 7.97881e-07 to 7.97883e-07
Heightened Def Con from 7.97883e-07 to 7.97885e-07
Heightened Def Con from 7.97885e-07 to 7.98887e-07
Heightened Def Con from 7.98887e-07 to 8.01887e-07
Heightened Def Con from 8.01889e-07 to 8.0192e-07
Heightened Def Con from 8.01921e-07 to 8.0197e-07
Heightened Def Con from 8.01972e-07 to 8.03097e-07
Heightened Def Con from 8.07099e-07 to 8.071e-07
Heightened Def Con from 8.071e-07 to 8.101e-07
Heightened Def Con from 8.10101e-07 to 8.10101e-07
Heightened Def Con from 8.10101e-07 to 8.12226e-07
Heightened Def Con from 8.1223e-07 to 8.12371e-07
Heightened Def Con from 8.12374e-07 to 8.12499e-07
Heightened Def Con from 8.125e-07 to 8.12625e-07
Heightened Def Con from 8.12625e-07 to 8.12673e-07
Heightened Def Con from 8.12754e-07 to 8.13004e-07
Heightened Def Con from 8.13435e-07 to 8.16435e-07
Heightened Def Con from 8.19661e-07 to 8.19677e-07
Heightened Def Con from 8.19677e-07 to 8.21679e-07
Heightened Def Con from 8.21679e-07 to 8.2171e-07
Heightened Def Con from 8.21722e-07 to 8.21849e-07
Heightened Def Con from 8.21853e-07 to 8.23978e-07
Heightened Def Con from 8.23978e-07 to 8.24009e-07
Heightened Def Con from 8.24123e-07 to 8.24123e-07
Heightened Def Con from 8.24123e-07 to 8.24155e-07
Heightened Def Con from 8.24162e-07 to 8.26287e-07
Heightened Def Con from 8.28256e-07 to 8.28381e-07
Heightened Def Con from 8.28381e-07 to 8.28385e-07
Heightened Def Con from 8.28385e-07 to 8.2951e-07
Heightened Def Con from 8.29761e-07 to 8.29761e-07
Heightened Def Con from 8.29762e-07 to 8.30012e-07
Heightened Def Con from 8.30012e-07 to 8.3003e-07
Heightened Def Con from 8.3003e-07 to 8.31045e-07
Heightened Def Con from 8.31049e-07 to 8.31061e-07
Heightened Def Con from 8.31061e-07 to 8.31061e-07
Heightened Def Con from 8.31061e-07 to 8.31311e-07
Heightened Def Con from 8.31315e-07 to 8.32317e-07
Heightened Def Con from 8.32332e-07 to 8.32335e-07
Heightened Def Con from 8.32335e-07 to 8.32335e-07
Heightened Def Con from 8.32335e-07 to 8.3235e-07
Heightened Def Con from 8.3235e-07 to 8.32353e-07
Heightened Def Con from 8.32353e-07 to 8.32355e-07
Heightened Def Con from 8.32355e-07 to 8.32355e-07
Heightened Def Con from 8.32356e-07 to 8.33356e-07
Heightened Def Con from 8.33356e-07 to 8.33356e-07
Heightened Def Con from 8.33356e-07 to 8.33356e-07
Heightened Def Con from 8.33356e-07 ++++++++++++++++++++++++++++++++++++++++++to 8.33356e-07
Heightened Def Con from 8.33356e-07 +++++++++++++++++++++++++++++++++++++++++to 8.33356e-07
Heightened Def Con from 8.33356e-07 to 8.33356e-07
Heightened Def Con from 8.33356e-07 to 8.33356e-07
Heightened Def Con from 8.33356e-07 to 8.33356e-07
Heightened Def Con from 8.33356e-07 +++++++++++++++++++++++++++++++++++++++++++to 8.33356e-07
Heightened Def Con from 8.33356e-07 to 8.33356e-07
Heightened Def Con from 8.33356e-07 to 8.33356e-07
Heightened Def Con from 8.33356e-07 to 8.33356e-07
Heightened Def Con from 8.33356e-07 to 8.33356e-07
Heightened Def Con from 8.33356e-07 to 8.33356e-07
Heightened Def Con from 8.33356e-07 to 8.33356e-07
Heightened Def Con from 8.33356e-07 ++++++++++++++++++++++++++++++++++++++++++to 8.33356e-07
Heightened Def Con from 8.33356e-07 to 8.33356e-07
Heightened Def Con from 8.33356e-07 to 8.33356e-07
Heightened Def Con from 8.33356e-07 to 8.33356e-07
Heightened Def Con from 8.33356e-07 to 8.33356e-07
Heightened Def Con from 8.33356e-07 to 8.33356e-07
Heightened Def Con from 8.33356e-07 to 8.33356e-07
Heightened Def Con from 8.33356e-07 +++++++++++++++++++++++++++++++++++++++++to 8.33356e-07
Heightened Def Con from 8.33356e-07 +++++++++++++++++++++++++++++++++++++++++++to 8.33356e-07
Heightened Def Con from 8.33356e-07 to 8.33356e-07
Heightened Def Con from 8.33356e-07 to 8.33356e-07
Heightened Def Con from 8.33356e-07 to 8.33356e-07
Heightened Def Con from 8.33356e-07 to 8.33356e-07
Heightened Def Con from 8.33356e-07 to 8.33356e-07
Heightened Def Con from 8.33356e-07 +++++++++++++++++++++++++++++++++++++++++++++to 8.33356e-07
Heightened Def Con from 8.33356e-07 to 8.33356e-07
Heightened Def Con from 8.33356e-07 to 8.33356e-07
Heightened Def Con from 8.33356e-07 to 8.33356e-07
Heightened Def Con from 8.33356e-07 to 8.33356e-07
Heightened Def Con from 8.33356e-07 to 8.33356e-07
Heightened Def Con from 8.33356e-07 to 8.33356e-07
Heightened Def Con from 8.33356e-07 to 8.33356e-07
Heightened Def Con from 8.33356e-07 to 8.33356e-07
Heightened Def Con from 8.33356e-07 to 8.33356e-07
Heightened Def Con from 8.33356e-07 to 8.33356e-07
Heightened Def Con from 8.33356e-07 to 8.33356e-07
Heightened Def Con from 8.33356e-07 +++++++++++++++++++++++++++++++++++++++++to 8.33356e-07
Heightened Def Con from 8.33356e-07 ++++++++++++++++++++++++++++++++++++++to 8.33356e-07
Heightened Def Con from 8.33356e-07 +++++++++++++++++++++++++++++++++++to 8.33356e-07
Heightened Def Con from 8.33356e-07 to 8.33356e-07
Heightened Def Con from 8.33356e-07 to 8.33356e-07
Heightened Def Con from 8.33356e-07 to 8.33356e-07
Heightened Def Con from 8.33356e-07 to 8.33356e-07
Heightened Def Con from 8.33356e-07 to 8.33356e-07
Heightened Def Con from 8.33356e-07 to 8.33356e-07
Heightened Def Con from 8.33356e-07 ++++++++++++++++++++++++++++++++++++++++to 8.33356e-07
Heightened Def Con from 8.33356e-07 to 8.33356e-07
Heightened Def Con from 8.33356e-07 to 8.33356e-07
Heightened Def Con from 8.33356e-07 +++++++++++++++++++++++++++++++++++++++to 8.33356e-07
Heightened Def Con from 8.33356e-07 to 8.33356e-07
Heightened Def Con from 8.33356e-07 ++++++++++++++++++++++++++++++++++++++++++++++to 8.33356e-07
Heightened Def Con from 8.33356e-07 +++++++++++++++++++++++++++++++++++++++++to 8.33356e-07
Heightened Def Con from 8.33356e-07 to 8.33356e-07
Heightened Def Con from 8.33356e-07 to 8.33356e-07
Heightened Def Con from 8.33356e-07 to 8.33356e-07
Heightened Def Con from 8.33356e-07 to 8.33356e-07
Heightened Def Con from 8.33356e-07 +++++++++++++++++++++++++++++++++++++++++++++to 8.33356e-07
Heightened Def Con from 8.33356e-07 to 8.33356e-07
Heightened Def Con from 8.33356e-07 to 8.33356e-07
Heightened Def Con from 8.33356e-07 +++++++++++++++++++++++++++++++++++++++to 8.33356e-07
Heightened Def Con from 8.33356e-07 to 8.33356e-07
Heightened Def Con from 8.33356e-07 +++++++++++++++++++++++++++++++++++++++++to 8.33356e-07
Heightened Def Con from 8.33356e-07 to 8.33356e-07
Heightened Def Con from 8.33356e-07 to 8.33356e-07
Heightened Def Con from 8.33356e-07 to 8.33356e-07
Heightened Def Con from 8.33356e-07 to 8.33356e-07
Heightened Def Con from 8.33356e-07 to 8.33356e-07
Heightened Def Con from 8.33356e-07 to 8.33356e-07
Heightened Def Con from 8.33356e-07 to 8.33356e-07
Heightened Def Con from 8.33356e-07 to 8.33356e-07
Heightened Def Con from 8.33356e-07 to 8.33356e-07
Heightened Def Con from 8.33356e-07 to 8.33356e-07
Heightened Def Con from 8.33356e-07 ++++++++++++++++++++++++++++++++++++++++to 8.33356e-07
Heightened Def Con from 8.33356e-07 to 8.33356e-07
Heightened Def Con from 8.33356e-07 to 8.33356e-07
Heightened Def Con from 8.33356e-07 to 8.33356e-07
Heightened Def Con from 8.33356e-07 +++++++++++++++++++++++++++++++++++++++++++to 8.33356e-07
Heightened Def Con from 8.33356e-07 to 8.33356e-07
Heightened Def Con from 8.33356e-07 to 8.33356e-07
Heightened Def Con from 8.33356e-07 to 8.33356e-07
Heightened Def Con from 8.33356e-07 to 8.33356e-07
Heightened Def Con from 8.33356e-07 +++++++++++++++++++++++++++++++++++++++++to 8.33356e-07
Heightened Def Con from 8.33356e-07 to 8.33356e-07
Heightened Def Con from 8.33356e-07 to 8.33356e-07
Heightened Def Con from 8.33356e-07 to 8.33356e-07
Heightened Def Con from 8.33356e-07 to 8.33356e-07
Heightened Def Con from 8.33356e-07 to 8.33356e-07
Heightened Def Con from 8.33356e-07 to 8.33356e-07
Heightened Def Con from 8.33356e-07 +++++++++++++++++++++++++++++++++++++++to 8.33356e-07
Heightened Def Con from 8.33356e-07 to 8.33356e-07
Heightened Def Con from 8.33356e-07 to 8.33356e-07
Heightened Def Con from 8.33356e-07 +++++++++++++++++++++++++++++++++++++++++to 8.33356e-07
Heightened Def Con from 8.33356e-07 to 8.33356e-07
Heightened Def Con from 8.33356e-07 to 8.33356e-07
Heightened Def Con from 8.33356e-07 to 8.33356e-07
Heightened Def Con from 8.33356e-07 to 8.33356e-07
Heightened Def Con from 8.33356e-07 to 8.33356e-07
Heightened Def Con from 8.33356e-07 +++++++++++++++++++++++++++++++++++++++++to 8.33356e-07
Heightened Def Con from 8.33356e-07 to 8.33356e-07
Heightened Def Con from 8.33356e-07 ++++++++++++++++++++++++++++++++++++++++to 8.33356e-07
Heightened Def Con from 8.33356e-07 +++++++++++++++++++++++++++++++++++++++++++to 8.33356e-07
Heightened Def Con from 8.33356e-07 to 8.33356e-07
Heightened Def Con from 8.33356e-07 +++++++++++++++++++++++++++++++++++++++++++++to 8.33356e-07
Heightened Def Con from 8.33356e-07 ++++++++++++++++++++++++++++++++++++++++++++to 8.33356e-07
Heightened Def Con from 8.33356e-07 to 8.33356e-07
Heightened Def Con from 8.33356e-07 ++++++++++++++++++++++++++++++++++++++++++++++++++to 8.33356e-07
Heightened Def Con from 8.33356e-07 ++++++++++++++++++++++++++++++++++++++++to 8.33356e-07
Heightened Def Con from 8.33356e-07 to 8.33356e-07
Heightened Def Con from 8.33356e-07 to 8.33356e-07
Heightened Def Con from 8.33356e-07 to 8.33356e-07
Heightened Def Con from 8.33356e-07 to 8.33356e-07
Heightened Def Con from 8.33356e-07 to 8.33356e-07
Heightened Def Con from 8.33356e-07 to 8.33356e-07
Heightened Def Con from 8.33356e-07 ++++++++++++++++++++++++++++++++++++++++to 8.33356e-07
Heightened Def Con from 8.33356e-07 ++++++++++++++++++++++++++++++++++++++++to 8.33356e-07
Heightened Def Con from 8.33356e-07 to 8.33356e-07
Heightened Def Con from 8.33356e-07 +++++++++++++++++++++++++++++++++++++++to 8.33356e-07
Heightened Def Con from 8.33356e-07 to 8.33356e-07
Heightened Def Con from 8.33356e-07 ++++++++++++++++++++++++++++++++++++++++to 8.33356e-07
Heightened Def Con from 8.33356e-07 to 8.33356e-07
Heightened Def Con from 8.33356e-07 to 8.33356e-07
Heightened Def Con from 8.33356e-07 to 8.33356e-07
Heightened Def Con from 8.33356e-07 +++++++++++++++++++++++++++++++++++++++++to 8.33356e-07
Heightened Def Con from 8.33356e-07 to 8.33356e-07
Heightened Def Con from 8.33356e-07 to 8.33356e-07
Heightened Def Con from 8.33356e-07 to 8.33356e-07
Heightened Def Con from 8.33356e-07 to 8.33356e-07
Heightened Def Con from 8.33356e-07 to 8.33356e-07
Heightened Def Con from 8.33356e-07 to 8.33356e-07
Heightened Def Con from 8.33356e-07 to 8.33356e-07
Heightened Def Con from 8.33356e-07 to 8.33356e-07
Heightened Def Con from 8.33356e-07 +++++++++++++++++++++++++++++++++++++++++++++++to 8.33356e-07
Heightened Def Con from 8.33356e-07 to 8.33356e-07
Heightened Def Con from 8.33356e-07 ++++++++++++++++++++++++++++++++++++++++++++to 8.33356e-07
Heightened Def Con from 8.33356e-07 to 8.33356e-07
Heightened Def Con from 8.33356e-07 to 8.33356e-07
Heightened Def Con from 8.33356e-07 to 8.33356e-07
Heightened Def Con from 8.33356e-07 ++++++++++++++++++++++++++++++++++++++++++++to 8.33356e-07
Heightened Def Con from 8.33356e-07 +++++++++++++++++++++++++++++++++++++++++to 8.33356e-07
Heightened Def Con from 8.33356e-07 +++++++++++++++++++++++++++++++++++++++++++++++to 8.33356e-07
Heightened Def Con from 8.33356e-07 to 8.33356e-07
Heightened Def Con from 8.33356e-07 to 8.33356e-07
Heightened Def Con from 8.33356e-07 to 8.33356e-07
Heightened Def Con from 8.33356e-07 +++++++++++++++++++++++++++++++++++++++++to 8.33356e-07
Heightened Def Con from 8.33356e-07 to 8.33356e-07
Heightened Def Con from 8.33356e-07 to 8.33356e-07
Heightened Def Con from 8.33356e-07 to 8.33356e-07
Heightened Def Con from 8.33356e-07 to 8.33356e-07
Heightened Def Con from 8.33356e-07 to 8.33356e-07
Heightened Def Con from 8.33356e-07 +++++++++++++++++++++++++++++++++++++++++to 8.33356e-07
Heightened Def Con from 8.33356e-07 to 8.33356e-07
Heightened Def Con from 8.33356e-07 +++++++++++++++++++++++++++++++++++++++++to 8.33356e-07
Heightened Def Con from 8.33356e-07 to 8.33356e-07
Heightened Def Con from 8.33356e-07 to 8.33356e-07
Heightened Def Con from 8.33356e-07 to 8.33356e-07
Heightened Def Con from 8.33356e-07 to 8.33356e-07
Heightened Def Con from 8.33356e-07 to 8.33356e-07
Heightened Def Con from 8.33356e-07 to 8.33356e-07
Heightened Def Con from 8.33356e-07 ++++++++++++++++++++++++++++++++++++++++++++++++++to 8.33356e-07
Heightened Def Con from 8.33356e-07 to 8.33356e-07
Heightened Def Con from 8.33356e-07 to 8.33356e-07
Heightened Def Con from 8.33356e-07 ++++++++++++++++++++++++++++++++++++to 8.33356e-07
Heightened Def Con from 8.33356e-07 to 8.33356e-07
Heightened Def Con from 8.33356e-07 to 8.33356e-07
Heightened Def Con from 8.33356e-07 to 8.33356e-07
Heightened Def Con from 8.33356e-07 to 8.33356e-07
Heightened Def Con from 8.33356e-07 to 8.33356e-07
Heightened Def Con from 8.33356e-07 ++++++++++++++++++++++++++++++++++++++++++++to 8.33356e-07
Heightened Def Con from 8.33356e-07 +++++++++++++++++++++++++++++++++++++++to 8.33356e-07
Heightened Def Con from 8.33356e-07 to 8.33356e-07
Heightened Def Con from 8.33356e-07 to 8.33356e-07
Heightened Def Con from 8.33356e-07 ++++++++++++++++++++++++++++++++++++++++++++to 8.33356e-07
Heightened Def Con from 8.33356e-07 to 8.33356e-07
Heightened Def Con from 8.33356e-07 to 8.33356e-07
Heightened Def Con from 8.33356e-07 to 8.33356e-07
Heightened Def Con from 8.33356e-07 to 8.33356e-07
Heightened Def Con from 8.33356e-07 to 8.33356e-07
Heightened Def Con from 8.33356e-07 to 8.33356e-07
Heightened Def Con from 8.33356e-07 to 8.33356e-07
Heightened Def Con from 8.33356e-07 to 8.33356e-07
Heightened Def Con from 8.33356e-07 to 8.33356e-07
Heightened Def Con from 8.33356e-07 to 8.33356e-07
Heightened Def Con from 8.33356e-07 to 8.33356e-07
Heightened Def Con from 8.33356e-07 to 8.33356e-07
Heightened Def Con from 8.33356e-07 to 8.33356e-07
Heightened Def Con from 8.33356e-07 ++++++++++++++++++++++++++++++++++++++++to 8.33356e-07
Heightened Def Con from 8.33356e-07 ++++++++++++++++++++++++++++++++++++++++to 8.33356e-07
Heightened Def Con from 8.33356e-07 ++++++++++++++++++++++++++++++++++++to 8.33356e-07
Heightened Def Con from 8.33356e-07 to 8.33356e-07
Heightened Def Con from 8.33356e-07 to 8.33356e-07
Heightened Def Con from 8.33356e-07 to 8.33356e-07
Heightened Def Con from 8.33356e-07 +++++++++++++++++++++++++++++++++++++++++to 8.33356e-07
Heightened Def Con from 8.33356e-07 to 8.33356e-07
Heightened Def Con from 8.33356e-07 to 8.33356e-07
Heightened Def Con from 8.33356e-07 to 8.33356e-07
Heightened Def Con from 8.33356e-07 to 8.33356e-07
Heightened Def Con from 8.33356e-07 +++++++++++++++++++++++++++++++++++++++++to 8.33356e-07
Heightened Def Con from 8.33356e-07 to 8.33356e-07
Heightened Def Con from 8.33356e-07 ++++++++++++++++++++++++++++++++++++++++++++++++++Fatal Error: Analysis:  Time step too small; time = 8.33356e-07, timestep = 1.25e-19: trouble with 1n5819-instance d1

