Circuit: * C:\Users\matti\Desktop\MAE\mxrPhase90\Face90\SPICE\SPICE files\phase90 ideal.asc

v5: both pins shorted together -- ignoring.
WARNING: Less than two connections to node nc_01.  This node is used by r22.
WARNING: Less than two connections to node nc_02.  This node is used by v1.
Direct Newton iteration for .op point succeeded.
Ignoring empty pin current: Ix(u2:1)
Ignoring empty pin current: Ix(u2:2)
Ignoring empty pin current: Ix(u3:1)
Ignoring empty pin current: Ix(u3:2)
Ignoring empty pin current: Ix(u4:1)
Ignoring empty pin current: Ix(u4:2)
Ignoring empty pin current: Ix(u5:1)
Ignoring empty pin current: Ix(u5:2)
Ignoring empty pin current: Ix(u6:1)
Ignoring empty pin current: Ix(u6:2)
Ignoring empty pin current: Ix(u2:1)
Ignoring empty pin current: Ix(u2:2)
Ignoring empty pin current: Ix(u3:1)
Ignoring empty pin current: Ix(u3:2)
Ignoring empty pin current: Ix(u4:1)
Ignoring empty pin current: Ix(u4:2)
Ignoring empty pin current: Ix(u5:1)
Ignoring empty pin current: Ix(u5:2)
Ignoring empty pin current: Ix(u6:1)
Ignoring empty pin current: Ix(u6:2)
Heightened Def Con from 1.04167e-10 to 1.10417e-09

Date: Wed Jun 14 16:58:49 2023
Total elapsed time: 0.146 seconds.

tnom = 27
temp = 27
method = modified trap
totiter = 1889
traniter = 1851
tranpoints = 818
accept = 809
rejected = 10
matrix size = 65
fillins = 103
solver = Normal
Avg thread counts: 1.2/1.4/1.4/1.2
Matrix Compiler1: 9.89 KB object code size  3.2/1.4/[0.7]
Matrix Compiler2: 7.39 KB object code size  0.7/1.4/[0.6]

