Circuit: * C:\Users\matti\Desktop\MAE\mxrPhase90\Face90\SPICE\SPICE files\phase90 ideal with R.asc

v6: both pins shorted together -- ignoring.
Direct Newton iteration for .op point succeeded.
Ignoring empty pin current: Ix(u2:1)
Ignoring empty pin current: Ix(u2:2)
Ignoring empty pin current: Ix(u3:1)
Ignoring empty pin current: Ix(u3:2)
Ignoring empty pin current: Ix(u4:1)
Ignoring empty pin current: Ix(u4:2)
Ignoring empty pin current: Ix(u5:1)
Ignoring empty pin current: Ix(u5:2)
Ignoring empty pin current: Ix(u6:1)
Ignoring empty pin current: Ix(u6:2)
Ignoring empty pin current: Ix(u2:1)
Ignoring empty pin current: Ix(u2:2)
Ignoring empty pin current: Ix(u3:1)
Ignoring empty pin current: Ix(u3:2)
Ignoring empty pin current: Ix(u4:1)
Ignoring empty pin current: Ix(u4:2)
Ignoring empty pin current: Ix(u5:1)
Ignoring empty pin current: Ix(u5:2)
Ignoring empty pin current: Ix(u6:1)
Ignoring empty pin current: Ix(u6:2)

Date: Sat May 13 11:42:27 2023
Total elapsed time: 65.600 seconds.

tnom = 27
temp = 27
method = modified trap
totiter = 5857618
traniter = 5857589
tranpoints = 2050250
accept = 1951462
rejected = 98788
matrix size = 51
fillins = 95
solver = Normal
Avg thread counts: 1.0/1.0/1.0/1.0
Matrix Compiler1: 7.99 KB object code size  4.4/3.9/[0.9]
Matrix Compiler2: 5.84 KB object code size  2.0/2.9/[1.3]

