Circuit: * C:\Users\matti\Desktop\MAE\mxrPhase90\Face90\SPICE\SPICE files\phase90 ideal with R.asc

v6: both pins shorted together -- ignoring.
Direct Newton iteration for .op point succeeded.
Ignoring empty pin current: Ix(u2:1)
Ignoring empty pin current: Ix(u2:2)
Ignoring empty pin current: Ix(u3:1)
Ignoring empty pin current: Ix(u3:2)
Ignoring empty pin current: Ix(u4:1)
Ignoring empty pin current: Ix(u4:2)
Ignoring empty pin current: Ix(u5:1)
Ignoring empty pin current: Ix(u5:2)
Ignoring empty pin current: Ix(u6:1)
Ignoring empty pin current: Ix(u6:2)
Ignoring empty pin current: Ix(u2:1)
Ignoring empty pin current: Ix(u2:2)
Ignoring empty pin current: Ix(u3:1)
Ignoring empty pin current: Ix(u3:2)
Ignoring empty pin current: Ix(u4:1)
Ignoring empty pin current: Ix(u4:2)
Ignoring empty pin current: Ix(u5:1)
Ignoring empty pin current: Ix(u5:2)
Ignoring empty pin current: Ix(u6:1)
Ignoring empty pin current: Ix(u6:2)

Date: Sat Apr 29 23:19:48 2023
Total elapsed time: 0.117 seconds.

tnom = 27
temp = 27
method = trap
totiter = 29
traniter = 0
tranpoints = 0
accept = 0
rejected = 0
matrix size = 54
fillins = 95
solver = Normal
Avg thread counts: 4.0/0.0/4.0/1.9
Matrix Compiler1:     464 opcodes
Matrix Compiler2: 6.16 KB object code size
