Circuit: * C:\Users\matti\Desktop\MAE\mxrPhase90\Face90\SPICE\SPICE files\phase90 - Stage.asc

v6: both pins shorted together -- ignoring.
v4: both pins shorted together -- ignoring.
WARNING: Node N004 is floating.

WARNING: Less than two connections to node n004.  This node is used by r3.
WARNING: Less than two connections to node n003.  This node is used by r8.
Direct Newton iteration failed to find .op point.  (Use ".option noopiter" to skip.)
Starting Gmin stepping
Gmin = 10
vernier = 0.5
vernier = 0.25
vernier = 0.125
Gmin = 4.55111
vernier = 0.0625
vernier = 0.03125
vernier = 0.015625
vernier = 0.0078125
Gmin = 4.3453
vernier = 0.00390625
vernier = 0.00195312
vernier = 0.000976562
Gmin = 4.3326
vernier = 0.000488281
Gmin = 0
Gmin stepping failed

Starting source stepping with srcstepmethod=0
Source Step = 3.0303%
Source Step = 33.3333%
Source Step = 63.6364%
Source Step = 93.9394%
Source stepping succeeded in finding the operating point.


Date: Wed Apr 26 16:02:04 2023
Total elapsed time: 0.981 seconds.

tnom = 27
temp = 27
method = modified trap
totiter = 40931
traniter = 39180
tranpoints = 19591
accept = 19591
rejected = 0
matrix size = 65
fillins = 109
solver = Normal
Avg thread counts: 1.0/1.0/1.0/1.0
Matrix Compiler1: 8.90 KB object code size  4.0/1.5/[0.6]
Matrix Compiler2: 7.33 KB object code size  1.5/1.5/[0.5]

