Circuit: * C:\Users\matti\Desktop\MAE\mxrPhase90\Face90\SPICE\SPICE files\phase90.asc

v6: both pins shorted together -- ignoring.
Early termination of direct N-R iteration.
Direct Newton iteration failed to find .op point.  (Use ".option noopiter" to skip.)
Starting Gmin stepping
Gmin = 10
vernier = 0.5
vernier = 0.25
vernier = 0.125
Gmin = 4.66851
vernier = 0.166667
vernier = 0.0833333
vernier = 0.0416667
vernier = 0.0208333
Gmin = 4.32209
vernier = 0.0104167
vernier = 0.00520833
vernier = 0.00260417
vernier = 0.00130208
vernier = 0.000651042
Gmin = 4.33331
vernier = 0.000488281
Gmin = 0
Gmin stepping failed

Starting source stepping with srcstepmethod=0
Source Step = 3.0303%
Source Step = 33.3333%
Source Step = 63.6364%
Source Step = 93.9394%
Source stepping succeeded in finding the operating point.


Date: Wed Apr 19 11:50:13 2023
Total elapsed time: 59.095 seconds.

tnom = 27
temp = 27
method = modified trap
totiter = 1164776
traniter = 1162993
tranpoints = 567601
accept = 484115
rejected = 83486
matrix size = 170
fillins = 1888
solver = Normal
Avg thread counts: 1.0/1.0/1.0/1.0
Matrix Compiler1: 383.50 KB object code size  79.4/50.5/[26.2]
Matrix Compiler2: 47.89 KB object code size  12.2/7.2/[4.1]

