Circuit: * C:\Users\matti\Desktop\MAE\mxrPhase90\Face90\SPICE\SPICE files\phase90.asc

v4: both pins shorted together -- ignoring.
v6: both pins shorted together -- ignoring.
WARNING: Less than two connections to node nc_01.  This node is used by r22.
Early termination of direct N-R iteration.
Direct Newton iteration failed to find .op point.  (Use ".option noopiter" to skip.)
Starting Gmin stepping
Gmin = 10
vernier = 0.5
vernier = 0.25
vernier = 0.125
Gmin = 4.55111
vernier = 0.0625
vernier = 0.03125
vernier = 0.015625
vernier = 0.0078125
Gmin = 4.3453
vernier = 0.00390625
vernier = 0.00195312
vernier = 0.000976562
Gmin = 4.3326
vernier = 0.000488281
Gmin = 0
Gmin stepping failed

Starting source stepping with srcstepmethod=0
Source Step = 3.0303%
Source Step = 33.3333%
Source Step = 63.6364%
Source Step = 93.9394%
Source stepping succeeded in finding the operating point.


Date: Thu Jun  8 11:51:42 2023
Total elapsed time: 131.128 seconds.

tnom = 27
temp = 27
method = modified trap
totiter = 3079446
traniter = 3077741
tranpoints = 1538425
accept = 1522785
rejected = 15640
matrix size = 170
fillins = 1420
solver = Normal
Avg thread counts: 1.0/1.0/1.0/1.0
Matrix Compiler1: 235.78 KB object code size  37.6/20.0/[9.4]
Matrix Compiler2: 39.88 KB object code size  10.9/6.3/[3.4]

