Circuit: * C:\Users\matti\Desktop\MAE\mxrPhase90\Face90\SPICE\SPICE files\phase90 - tests.asc

v6: both pins shorted together -- ignoring.
Early termination of direct N-R iteration.
Direct Newton iteration failed to find .op point.  (Use ".option noopiter" to skip.)
Starting Gmin stepping
Gmin = 10
vernier = 0.5
vernier = 0.25
vernier = 0.125
Gmin = 4.55111
vernier = 0.0625
vernier = 0.03125
vernier = 0.015625
vernier = 0.0078125
Gmin = 4.3453
vernier = 0.00390625
vernier = 0.00195312
vernier = 0.000976562
Gmin = 4.3326
vernier = 0.000488281
Gmin = 0
Gmin stepping failed

Starting source stepping with srcstepmethod=0
Source Step = 3.0303%
Source Step = 33.3333%
Source Step = 63.6364%
Source Step = 93.9394%
Source stepping succeeded in finding the operating point.


Date: Tue Apr 18 14:16:00 2023
Total elapsed time: 0.799 seconds.

tnom = 27
temp = 27
method = trap
totiter = 1691
traniter = 0
tranpoints = 0
accept = 0
rejected = 0
matrix size = 166
fillins = 1462
solver = Normal
Avg thread counts: 1.2/0.0/3.9/1.1
Matrix Compiler1:   13374 opcodes
Matrix Compiler2: 40.11 KB object code size  9.9/6.1/[3.1]

