Circuit: * C:\Users\matti\Desktop\MAE\mxrPhase90\Face90\SPICE\SPICE files\phase90 ideal.asc

v5: both pins shorted together -- ignoring.
WARNING: Less than two connections to node nc_01.  This node is used by r22.
Direct Newton iteration for .op point succeeded.
Ignoring empty pin current: Ix(u2:1)
Ignoring empty pin current: Ix(u2:2)
Ignoring empty pin current: Ix(u3:1)
Ignoring empty pin current: Ix(u3:2)
Ignoring empty pin current: Ix(u4:1)
Ignoring empty pin current: Ix(u4:2)
Ignoring empty pin current: Ix(u5:1)
Ignoring empty pin current: Ix(u5:2)
Ignoring empty pin current: Ix(u6:1)
Ignoring empty pin current: Ix(u6:2)
Ignoring empty pin current: Ix(u2:1)
Ignoring empty pin current: Ix(u2:2)
Ignoring empty pin current: Ix(u3:1)
Ignoring empty pin current: Ix(u3:2)
Ignoring empty pin current: Ix(u4:1)
Ignoring empty pin current: Ix(u4:2)
Ignoring empty pin current: Ix(u5:1)
Ignoring empty pin current: Ix(u5:2)
Ignoring empty pin current: Ix(u6:1)
Ignoring empty pin current: Ix(u6:2)

Date: Sat May 13 15:53:08 2023
Total elapsed time: 2.667 seconds.

tnom = 27
temp = 27
method = modified trap
totiter = 194479
traniter = 194441
tranpoints = 68616
accept = 44120
rejected = 24496
matrix size = 60
fillins = 100
solver = Normal
Avg thread counts: 1.0/1.0/1.0/1.0
Matrix Compiler1: 9.46 KB object code size  4.4/2.6/[1.1]
Matrix Compiler2: 6.90 KB object code size  1.4/2.0/[0.7]

