Circuit: * C:\Users\matti\Desktop\MAE\mxrPhase90\Face90\SPICE\SPICE files\phase90 ideal.asc

v6: both pins shorted together -- ignoring.
WARNING: Less than two connections to node nc_01.  This node is used by r22.
Direct Newton iteration for .op point succeeded.
Ignoring empty pin current: Ix(u2:1)
Ignoring empty pin current: Ix(u2:2)
Ignoring empty pin current: Ix(u3:1)
Ignoring empty pin current: Ix(u3:2)
Ignoring empty pin current: Ix(u4:1)
Ignoring empty pin current: Ix(u4:2)
Ignoring empty pin current: Ix(u5:1)
Ignoring empty pin current: Ix(u5:2)
Ignoring empty pin current: Ix(u6:1)
Ignoring empty pin current: Ix(u6:2)
Ignoring empty pin current: Ix(u2:1)
Ignoring empty pin current: Ix(u2:2)
Ignoring empty pin current: Ix(u3:1)
Ignoring empty pin current: Ix(u3:2)
Ignoring empty pin current: Ix(u4:1)
Ignoring empty pin current: Ix(u4:2)
Ignoring empty pin current: Ix(u5:1)
Ignoring empty pin current: Ix(u5:2)
Ignoring empty pin current: Ix(u6:1)
Ignoring empty pin current: Ix(u6:2)

Date: Sat Apr 29 23:06:07 2023
Total elapsed time: 0.234 seconds.

tnom = 27
temp = 27
method = trap
totiter = 38
traniter = 0
tranpoints = 0
accept = 0
rejected = 0
matrix size = 63
fillins = 100
solver = Normal
Avg thread counts: 4.0/0.0/4.0/1.9
Matrix Compiler1:     546 opcodes
Matrix Compiler2:     541 opcodes
