Circuit: * C:\Users\matti\Desktop\MAE\mxrPhase90\Face90\SPICE\SPICE files\phase90.asc

v6: both pins shorted together -- ignoring.
Early termination of direct N-R iteration.
Direct Newton iteration failed to find .op point.  (Use ".option noopiter" to skip.)
Starting Gmin stepping
Gmin = 10
vernier = 0.5
vernier = 0.25
vernier = 0.125
Gmin = 4.55111
vernier = 0.0625
vernier = 0.03125
vernier = 0.015625
vernier = 0.0078125
Gmin = 4.3453
vernier = 0.00390625
vernier = 0.00195312
vernier = 0.000976562
Gmin = 4.3326
vernier = 0.000488281
Gmin = 0
Gmin stepping failed

Starting source stepping with srcstepmethod=0
Source Step = 3.0303%
Source Step = 33.3333%
Source Step = 63.6364%
Source Step = 93.9394%
Source stepping succeeded in finding the operating point.


Date: Sun Apr 16 17:02:03 2023
Total elapsed time: 45.925 seconds.

tnom = 27
temp = 27
method = modified trap
totiter = 828550
traniter = 826840
tranpoints = 412049
accept = 409430
rejected = 2619
matrix size = 166
fillins = 1462
solver = Normal
Avg thread counts: 1.0/1.0/1.0/1.0
Matrix Compiler1: 258.62 KB object code size  47.7/23.3/[10.8]
Matrix Compiler2: 40.11 KB object code size  12.7/8.5/[4.4]

