Circuit: * C:\Users\matti\Desktop\MAE\mxrPhase90\Face90\SPICE\SPICE files\phase90 - Stage.asc

v5: both pins shorted together -- ignoring.
WARNING: Less than two connections to node n006.  This node is used by r8.
Direct Newton iteration failed to find .op point.  (Use ".option noopiter" to skip.)
Starting Gmin stepping
Gmin = 10
vernier = 0.5
vernier = 0.25
vernier = 0.125
Gmin = 4.55111
vernier = 0.0625
vernier = 0.03125
vernier = 0.015625
vernier = 0.0078125
Gmin = 4.3453
vernier = 0.00390625
vernier = 0.00195312
vernier = 0.000976562
Gmin = 4.3326
vernier = 0.000488281
Gmin = 0
Gmin stepping failed

Starting source stepping with srcstepmethod=0
Source Step = 3.0303%
Source Step = 33.3333%
Source Step = 63.6364%
Source Step = 93.9394%
Source stepping succeeded in finding the operating point.


Date: Wed Apr 19 16:04:13 2023
Total elapsed time: 1.282 seconds.

tnom = 27
temp = 27
method = modified trap
totiter = 81759
traniter = 80032
tranpoints = 40017
accept = 24021
rejected = 15996
matrix size = 65
fillins = 80
solver = Normal
Avg thread counts: 1.0/1.0/1.0/1.0
Matrix Compiler1: 7.36 KB object code size  3.1/1.9/[0.7]
Matrix Compiler2: 6.85 KB object code size  1.2/1.6/[0.5]

