Circuit: * C:\Users\matti\Desktop\MAE\mxrPhase90\Face90\SPICE\SPICE files\phase90 ideal.asc

v6: both pins shorted together -- ignoring.
WARNING: Less than two connections to node nc_01.  This node is used by r22.
WARNING: Less than two connections to node nc_02.  This node is used by v4.
Direct Newton iteration for .op point succeeded.
Ignoring empty pin current: Ix(u2:1)
Ignoring empty pin current: Ix(u2:2)
Ignoring empty pin current: Ix(u3:1)
Ignoring empty pin current: Ix(u3:2)
Ignoring empty pin current: Ix(u4:1)
Ignoring empty pin current: Ix(u4:2)
Ignoring empty pin current: Ix(u5:1)
Ignoring empty pin current: Ix(u5:2)
Ignoring empty pin current: Ix(u6:1)
Ignoring empty pin current: Ix(u6:2)
Ignoring empty pin current: Ix(u2:1)
Ignoring empty pin current: Ix(u2:2)
Ignoring empty pin current: Ix(u3:1)
Ignoring empty pin current: Ix(u3:2)
Ignoring empty pin current: Ix(u4:1)
Ignoring empty pin current: Ix(u4:2)
Ignoring empty pin current: Ix(u5:1)
Ignoring empty pin current: Ix(u5:2)
Ignoring empty pin current: Ix(u6:1)
Ignoring empty pin current: Ix(u6:2)
Heightened Def Con from 0.592653 to 0.592653
Heightened Def Con from 0.592653 +++to 0.592653
Heightened Def Con from 0.592653 to 0.592653
Heightened Def Con from 0.769705 +++++++++++++++to 0.769705
Heightened Def Con from 0.769705 +++++to 0.769705
Heightened Def Con from 0.769705 +to 0.769705
Heightened Def Con from 1.42692 ++to 1.42692
Heightened Def Con from 1.42692 to 1.42692
Heightened Def Con from 1.96365 to 1.96365
Heightened Def Con from 1.96365 ++to 1.96365
Heightened Def Con from 1.96365 to 1.96365
Heightened Def Con from 2.28739 to 2.28739
Heightened Def Con from 2.28739 +++++++to 2.28739
Heightened Def Con from 2.28739 to 2.28739
Heightened Def Con from 2.28739 to 2.28739
Heightened Def Con from 3.0032 to 3.0032
Heightened Def Con from 3.0032 +++to 3.0032
Heightened Def Con from 3.0032 +to 3.0032
Heightened Def Con from 3.1317 ++to 3.1317
Heightened Def Con from 3.1317 to 3.1317
Heightened Def Con from 3.56825 to 3.56825
Heightened Def Con from 3.56825 to 3.56825
Heightened Def Con from 3.56825 ++++to 3.56825
Heightened Def Con from 3.56825 to 3.56825
Heightened Def Con from 3.66125 to 3.66125
Heightened Def Con from 4.10524 +to 4.10524
Heightened Def Con from 4.10524 +++++to 4.10524
Heightened Def Con from 4.10524 to 4.10524
Heightened Def Con from 4.10524 +to 4.10524
Heightened Def Con from 5.49556 to 5.49556
Heightened Def Con from 5.49556 +to 5.49556
Heightened Def Con from 5.49556 to 5.49556
Heightened Def Con from 5.63639 to 5.63639
Heightened Def Con from 5.63639 ++++++++to 5.63639
Heightened Def Con from 5.63639 to 5.63639
Heightened Def Con from 5.63639 to 5.63639
Heightened Def Con from 5.63639 to 5.63639
Heightened Def Con from 6.55569 to 6.55569
Heightened Def Con from 6.66517 to 6.66517
Heightened Def Con from 6.66517 +to 6.66517
Heightened Def Con from 6.66517 to 6.66517
Heightened Def Con from 7 ++++++++++++++++++++to 7
Heightened Def Con from 7 +++++++++++++++++++to 7

Date: Tue May 23 11:21:56 2023
Total elapsed time: 63.968 seconds.

tnom = 27
temp = 27
method = modified trap
totiter = 3389429
traniter = 3389391
tranpoints = 1493348
accept = 1457069
rejected = 36423
matrix size = 62
fillins = 100
solver = Normal
Avg thread counts: 1.0/1.0/1.0/1.0
Matrix Compiler1: 9.49 KB object code size  3.8/2.2/[1.2]
Matrix Compiler2: 6.97 KB object code size  1.7/2.9/[1.2]

