Circuit: * C:\Users\matti\Desktop\MAE\mxrPhase90\Face90\SPICE\SPICE files\stage.asc

Direct Newton iteration for .op point succeeded.
Ignoring empty pin current: Ix(u1:1)
Ignoring empty pin current: Ix(u1:2)
Ignoring empty pin current: Ix(u2:1)
Ignoring empty pin current: Ix(u2:2)
Ignoring empty pin current: Ix(u1:1)
Ignoring empty pin current: Ix(u1:2)
Ignoring empty pin current: Ix(u2:1)
Ignoring empty pin current: Ix(u2:2)

Date: Fri Apr 28 16:47:30 2023
Total elapsed time: 0.051 seconds.

tnom = 27
temp = 27
method = modified trap
totiter = 2371
traniter = 2367
tranpoints = 1085
accept = 1052
rejected = 33
matrix size = 18
fillins = 2
solver = Normal
Avg thread counts: 1.1/1.3/1.3/1.1
Matrix Compiler1: 818 bytes object code size  0.6/0.7/[0.3]
Matrix Compiler2: 1.32 KB object code size  0.4/0.8/[0.3]

